-------------------------------------------------------
          Amber 14 SANDER                              2014
          -------------------------------------------------------

  [-O]verwriting output

File Assignments:

 Here is the input file:

30 ns NTP MD
 &cntrl
   ig = -1,              ! Pseudo-random number generator (random seed based on
   imin = 0,             ! Minimization (No)
   irest = 1,            ! Restart the Simulation? (Yes)
   ntx = 5,              ! Read coordinates, velocities (ASCII)
   cut = 10,             ! Non-bonding Cut-off (9 A)
   ntc = 2,              ! SHAKE bond length constraints (constrain bonds with
   ntf = 2,              ! SHAKE force evaluation (omit bonds with H)
                         ! Note: SHAKE set for TIP3P waters
   tol = 0.00000005,	 ! equal to the rigid tolerance for NAMD
   ntt = 3,              ! Temperature scaling (Langevin dynamics)
   nsnb = 10,            ! these two parameter is equalivent to stepspercycle
   temp0 = 310.0,        ! Reference temperature (310 K, physiological temperat
   gamma_ln = 5.0,       ! Collision frequency (1 ps^-1)
   ntp=1,                ! Constant Pressure MD (Isotropic position scaling)
   ntb=2,                ! PBC (Constant Pressure)
   pres0=1.01325,        ! Reference Pressure (1 bar)
   taup=2.0,             ! Pressure relaxation time (2 ps)
   dt = 0.002,           ! Simulation time-step (0.002 ps or 2 fs)
   nstlim = 15000000,     ! Simulation length ( 30000000 steps or 30 ns)
   ntpr = 5000,          ! Energy save interval (every 5000 steps or 10 ps)
   ntwx = 5000,          ! Coordinate/trajectory save interval (every 5000 step
   ntwr = 5000,       ! Restart file only at end of run.
   iwrap = 1,            ! Coordinates to be "wrapped" into primary box (on)
   ioutfm = 1,           ! Trajectory file format (Binary NetCDF)
 /
 &ewald
   skinnb = 2.0,           ! equal to pairlistdist (cutoff + skinnb)
   nbflag = 0,             !
 /

Note: ig = -1. Setting random seed to   581098 based on wallclock time in
      microseconds.

--------------------------------------------------------------------------------
   1.  RESOURCE   USE:
--------------------------------------------------------------------------------

 getting new box info from bottom of inpcrd
 NATOM  =   26731 NTYPES =      19 NBONH =   25175 MBONA  =    1600
 NTHETH =    3372 MTHETA =    2194 NPHIH =    6672 MPHIA  =    5434
 NHPARM =       0 NPARM  =       0 NNB   =   48323 NRES   =    8091
 NBONA  =    1600 NTHETA =    2194 NPHIA =    5434 NUMBND =      64
 NUMANG =     128 NPTRA  =      51 NATYP =      45 NPHB   =       1
 IFBOX  =       1 NMXRS  =      42 IFCAP =       0 NEXTRA =       0
 NCOPY  =       0

     BOX TYPE: RECTILINEAR

--------------------------------------------------------------------------------
   2.  CONTROL  DATA  FOR  THE  RUN
--------------------------------------------------------------------------------

default_name

General flags:
     imin    =       0, nmropt  =       0

Nature and format of input:
     ntx     =       5, irest   =       1, ntrx    =       1

Nature and format of output:
     ntxo    =       1, ntpr    =    5000, ntrx    =       1, ntwr    =    5000
     iwrap   =       1, ntwx    =    5000, ntwv    =       0, ntwe    =       0
     ioutfm  =       1, ntwprt  =       0, idecomp =       0, rbornstat=      0

Potential function:
     ntf     =       2, ntb     =       2, igb     =       0, nsnb    =      10
     ipol    =       0, gbsa    =       0, iesp    =       0
     dielc   =   1.00000, cut     =  10.00000, intdiel =   1.00000

Frozen or restrained atoms:
     ibelly  =       0, ntr     =       0

Molecular dynamics:
     nstlim  =  15000000, nscm    =      1000, nrespa  =         1
     t       =   0.00000, dt      =   0.00200, vlimit  =  -1.00000

Langevin dynamics temperature regulation:
     ig      =  581098
     temp0   = 310.00000, tempi   =   0.00000, gamma_ln=   5.00000

Pressure regulation:
     ntp     =       1
     pres0   =   1.01325, comp    =  44.60000, taup    =   2.00000

SHAKE:
     ntc     =       2, jfastw  =       0
     tol     =   0.00000

Ewald parameters:
     verbose =       0, ew_type =       0, nbflag  =       0, use_pme =       1
     vdwmeth =       1, eedmeth =       1, netfrc  =       1
     Box X =   66.667   Box Y =   68.572   Box Z =   65.199
     Alpha =   90.000   Beta  =   90.000   Gamma =   90.000
     NFFT1 =   64       NFFT2 =   72       NFFT3 =   64
     Cutoff=   10.000   Tol   =0.100E-04
     Ewald Coefficient =  0.27511
     Interpolation order =    4

--------------------------------------------------------------------------------
   3.  ATOMIC COORDINATES AND VELOCITIES
--------------------------------------------------------------------------------

default_name
 begin time read from input coords =  1000.000 ps

 Number of triangulated 3-point waters found:     7895

     Sum of charges from parm topology file =  -0.00020106
     Forcing neutrality...

--------------------------------------------------------------------------------
   4.  RESULTS
 NSTEP =     5000   TIME(PS) =    1010.000  TEMP(K) =   310.67  PRESS =   -71.4
 Etot   =    -63960.2638  EKtot   =     16982.9355  EPtot      =    -80943.1993
 BOND   =       622.7450  ANGLE   =      1699.3190  DIHED      =      2074.0241
 1-4 NB =       694.0591  1-4 EEL =      5618.0100  VDWAALS    =      8943.3834
 EELEC  =   -100594.7399  EHBOND  =         0.0000  RESTRAINT  =         0.0000
 EKCMT  =      7368.7167  VIRIAL  =      7796.3674  VOLUME     =    277422.2535
                                                    Density    =         0.9846
 ------------------------------------------------------------------------------

      A V E R A G E S   O V E R    3000 S T E P S

 NSTEP = 15000000   TIME(PS) =   31000.000  TEMP(K) =   310.06  PRESS =     0.5
 Etot   =    -64596.7186  EKtot   =     16949.8650  EPtot      =    -81546.5836
 BOND   =       631.0685  ANGLE   =      1693.5490  DIHED      =      2063.5633
 1-4 NB =       680.7369  1-4 EEL =      5532.9653  VDWAALS    =      9111.5210
 EELEC  =   -101259.9875  EHBOND  =         0.0000  RESTRAINT  =         0.0000
 EKCMT  =      7317.3077  VIRIAL  =      7314.6491  VOLUME     =    268769.6643
                                                    Density    =         1.0163
 ------------------------------------------------------------------------------

      R M S  F L U C T U A T I O N S

 NSTEP = 15000000   TIME(PS) =   31000.000  TEMP(K) =     1.83  PRESS =   164.5
 Etot   =       175.1181  EKtot   =       100.1334  EPtot      =       143.0550
 BOND   =        21.7315  ANGLE   =        31.7486  DIHED      =        19.2347
 1-4 NB =        11.3032  1-4 EEL =        39.0236  VDWAALS    =       128.5991
 EELEC  =       208.8279  EHBOND  =         0.0000  RESTRAINT  =         0.0000
 EKCMT  =        66.5836  VIRIAL  =       954.3874  VOLUME     =       411.4467
                                                    Density    =         0.0015
 ------------------------------------------------------------------------------
