-------------------------------------------------------
          Amber 14 SANDER                              2014
          -------------------------------------------------------

  [-O]verwriting output

File Assignments:

 Here is the input file:

Restrained Heating 250ps NPT MD
 &cntrl
   ig = -1,             ! Pseudo-random number generator (random seed based on
   imin = 0,            ! Minimization (No)
   irest = 1,           ! Restart the Simulation? (Yes)
   ntx = 5,             ! Read coordinates, velocities, and box
   cut = 10,            ! Non-bonding Cut-off (10 A)
   ntc = 2,             ! SHAKE bond length constraints (constrain bonds with H
   ntf = 2,             ! SHAKE force evaluation (omit bonds with H)
                        ! Note: SHAKE set for TIP3P waters
   tol = 0.00000005,	! equal to the rigid tolerance for NAMD
   dt = 0.001,		    		! timestep
   nstlim = 250000,     ! Simulation length (125000 steps or 250 ps)
   ntwr = 250000,       ! Restart file only at end of run.
   iwrap = 1,           ! Coordinates to be "wrapped" into primary box (on)
   nsnb = 20,		    		! these two parameter is equalivent to stepspercycle
   ntb = 2,                		! PBC (Constant Pressure)
   ntp = 1, 				! constant pressure MD (Isotropic position scaling)
   pres0=1.01325,			! Reference Pressure (1 bar)
   taup = 2.0,				! Pressure relaxation time (2ps)
   ntt = 3,				! Temperature Scaling (Langevin dynamics)
   gamma_ln = 5.0,      ! Collision frequency (1 ps^-1)
   temp0 = 310.0,	! Reference temperature (310K, physiological temperature)
   ntr = 1,             ! Harmonic constraints in Cartesian space (On)
   restraint_wt = 3.0,  ! Positional restraints weight ( 5 kcal/mol-A^2)
   restraintmask = '!@H=', 		! Restrained atoms (Protein backbone)
   ioutfm = 1,          ! Trajectory file format (Binary NetCDF)
   ntpr = 500,         ! Energy save interval (every 5000 steps or 10 ps)
   ntwx = 500,         ! Coordinate/trajectory save interval (every 5000 steps
 /
 &ewald
   skinnb = 2.0,           ! equal to pairlistdist (cutoff + skinnb)
   nbflag = 0,             !
 /

Note: ig = -1. Setting random seed to   862619 based on wallclock time in
      microseconds.

--------------------------------------------------------------------------------
   1.  RESOURCE   USE:
--------------------------------------------------------------------------------

 getting new box info from bottom of inpcrd
 NATOM  =   26731 NTYPES =      19 NBONH =   25175 MBONA  =    1600
 NTHETH =    3372 MTHETA =    2194 NPHIH =    6672 MPHIA  =    5434
 NHPARM =       0 NPARM  =       0 NNB   =   48323 NRES   =    8091
 NBONA  =    1600 NTHETA =    2194 NPHIA =    5434 NUMBND =      64
 NUMANG =     128 NPTRA  =      51 NATYP =      45 NPHB   =       1
 IFBOX  =       1 NMXRS  =      42 IFCAP =       0 NEXTRA =       0
 NCOPY  =       0

     BOX TYPE: RECTILINEAR

--------------------------------------------------------------------------------
   2.  CONTROL  DATA  FOR  THE  RUN
--------------------------------------------------------------------------------

default_name

General flags:
     imin    =       0, nmropt  =       0

Nature and format of input:
     ntx     =       5, irest   =       1, ntrx    =       1

Nature and format of output:
     ntxo    =       1, ntpr    =     500, ntrx    =       1, ntwr    =  250000
     iwrap   =       1, ntwx    =     500, ntwv    =       0, ntwe    =       0
     ioutfm  =       1, ntwprt  =       0, idecomp =       0, rbornstat=      0

Potential function:
     ntf     =       2, ntb     =       2, igb     =       0, nsnb    =      20
     ipol    =       0, gbsa    =       0, iesp    =       0
     dielc   =   1.00000, cut     =  10.00000, intdiel =   1.00000

Frozen or restrained atoms:
     ibelly  =       0, ntr     =       1
     restraint_wt =   3.00000

Molecular dynamics:
     nstlim  =    250000, nscm    =         0, nrespa  =         1
     t       =   0.00000, dt      =   0.00100, vlimit  =  -1.00000

Langevin dynamics temperature regulation:
     ig      =  862619
     temp0   = 310.00000, tempi   =   0.00000, gamma_ln=   5.00000

Pressure regulation:
     ntp     =       1
     pres0   =   1.01325, comp    =  44.60000, taup    =   2.00000

SHAKE:
     ntc     =       2, jfastw  =       0
     tol     =   0.00000

Ewald parameters:
     verbose =       0, ew_type =       0, nbflag  =       0, use_pme =       1
     vdwmeth =       1, eedmeth =       1, netfrc  =       1
     Box X =   69.814   Box Y =   71.808   Box Z =   68.277
     Alpha =   90.000   Beta  =   90.000   Gamma =   90.000
     NFFT1 =   72       NFFT2 =   72       NFFT3 =   72
     Cutoff=   10.000   Tol   =0.100E-04
     Ewald Coefficient =  0.27511
     Interpolation order =    4

    LOADING THE CONSTRAINED ATOMS AS GROUPS

   5.  REFERENCE ATOM COORDINATES

  default_name
     Mask !@H=; matches  9451 atoms

--------------------------------------------------------------------------------
   3.  ATOMIC COORDINATES AND VELOCITIES
--------------------------------------------------------------------------------

default_name
 begin time read from input coords =   250.000 ps

 Number of triangulated 3-point waters found:     7895

     Sum of charges from parm topology file =  -0.00020106
     Forcing neutrality...

--------------------------------------------------------------------------------
   4.  RESULTS
 NSTEP =      500   TIME(PS) =     250.500  TEMP(K) =   307.10  PRESS = -1952.6
 Etot   =    -56225.1763  EKtot   =     16787.7988  EPtot      =    -73012.9751
 BOND   =       636.9450  ANGLE   =      1632.3795  DIHED      =      2021.7011
 1-4 NB =       660.4562  1-4 EEL =      5551.1282  VDWAALS    =      8376.0938
 EELEC  =    -96741.9209  EHBOND  =         0.0000  RESTRAINT  =      4850.2420
 EAMBER (non-restraint)  =    -77863.2171
 EKCMT  =      7126.9260  VIRIAL  =     21221.9056  VOLUME     =    334331.2607
                                                    Density    =         0.8170
 ------------------------------------------------------------------------------

      A V E R A G E S   O V E R     500 S T E P S

 NSTEP =   250000   TIME(PS) =     500.000  TEMP(K) =   310.02  PRESS =    -8.3
 Etot   =    -57145.3694  EKtot   =     16947.3457  EPtot      =    -74092.7151
 BOND   =       612.2238  ANGLE   =      1637.4606  DIHED      =      2065.0232
 1-4 NB =       663.0260  1-4 EEL =      5554.9671  VDWAALS    =     10459.2581
 EELEC  =   -100554.1969  EHBOND  =         0.0000  RESTRAINT  =      5469.5230
 EAMBER (non-restraint)  =    -79562.2381
 EKCMT  =      7298.1884  VIRIAL  =      7358.2679  VOLUME     =    312634.2564
                                                    Density    =         0.8737
 ------------------------------------------------------------------------------

      R M S  F L U C T U A T I O N S

 NSTEP =   250000   TIME(PS) =     500.000  TEMP(K) =     1.87  PRESS =   165.8
 Etot   =       177.5453  EKtot   =       102.3133  EPtot      =       145.7332
 BOND   =        19.7854  ANGLE   =        28.6399  DIHED      =        17.4628
 1-4 NB =         9.6664  1-4 EEL =        29.9209  VDWAALS    =       173.6975
 EELEC  =       287.7953  EHBOND  =         0.0000  RESTRAINT  =        78.0820
 EAMBER (non-restraint)  =        67.6512
 EKCMT  =        66.5266  VIRIAL  =      1152.2999  VOLUME     =      1472.6800
                                                    Density    =         0.0039
 ------------------------------------------------------------------------------
