-------------------------------------------------------
          Amber 14 SANDER                              2014
          -------------------------------------------------------

  [-O]verwriting output

File Assignments:

 Here is the input file:

Restrained Heating 250ps NPT MD
 &cntrl
   ig = -1,             ! Pseudo-random number generator (random seed based on
   imin = 0,            ! Minimization (No)
   irest = 1,           ! Restart the Simulation? (Yes)
   ntx = 5,             ! Read coordinates, velocities, and box
   cut = 10,            ! Non-bonding Cut-off (10 A)
   ntc = 2,             ! SHAKE bond length constraints (constrain bonds with H
   ntf = 2,             ! SHAKE force evaluation (omit bonds with H)
                        ! Note: SHAKE set for TIP3P waters
   tol = 0.00000005,	! equal to the rigid tolerance for NAMD
   dt = 0.001,		    		! timestep
   nstlim = 250000,     ! Simulation length (125000 steps or 250 ps)
   ntwr = 250000,       ! Restart file only at end of run.
   iwrap = 1,           ! Coordinates to be "wrapped" into primary box (on)
   nsnb = 20,		    		! these two parameter is equalivent to stepspercycle
   ntb = 2,                		! PBC (Constant Pressure)
   ntp = 1, 				! constant pressure MD (Isotropic position scaling)
   pres0=1.01325,			! Reference Pressure (1 bar)
   taup = 2.0,				! Pressure relaxation time (2ps)
   ntt = 3,				! Temperature Scaling (Langevin dynamics)
   gamma_ln = 5.0,      ! Collision frequency (1 ps^-1)
   temp0 = 310.0,	! Reference temperature (310K, physiological temperature)
   ntr = 1,             ! Harmonic constraints in Cartesian space (On)
   restraint_wt = 2.0,  ! Positional restraints weight ( 5 kcal/mol-A^2)
   restraintmask = '!@H=', 		! Restrained atoms (Protein backbone)
   ioutfm = 1,          ! Trajectory file format (Binary NetCDF)
   ntpr = 500,         ! Energy save interval (every 5000 steps or 10 ps)
   ntwx = 500,         ! Coordinate/trajectory save interval (every 5000 steps
 /
 &ewald
   skinnb = 2.0,           ! equal to pairlistdist (cutoff + skinnb)
   nbflag = 0,             !
 /

Note: ig = -1. Setting random seed to   811473 based on wallclock time in
      microseconds.

--------------------------------------------------------------------------------
   1.  RESOURCE   USE:
--------------------------------------------------------------------------------

 getting new box info from bottom of inpcrd
 NATOM  =   26731 NTYPES =      19 NBONH =   25175 MBONA  =    1600
 NTHETH =    3372 MTHETA =    2194 NPHIH =    6672 MPHIA  =    5434
 NHPARM =       0 NPARM  =       0 NNB   =   48323 NRES   =    8091
 NBONA  =    1600 NTHETA =    2194 NPHIA =    5434 NUMBND =      64
 NUMANG =     128 NPTRA  =      51 NATYP =      45 NPHB   =       1
 IFBOX  =       1 NMXRS  =      42 IFCAP =       0 NEXTRA =       0
 NCOPY  =       0

     BOX TYPE: RECTILINEAR

--------------------------------------------------------------------------------
   2.  CONTROL  DATA  FOR  THE  RUN
--------------------------------------------------------------------------------

default_name

General flags:
     imin    =       0, nmropt  =       0

Nature and format of input:
     ntx     =       5, irest   =       1, ntrx    =       1

Nature and format of output:
     ntxo    =       1, ntpr    =     500, ntrx    =       1, ntwr    =  250000
     iwrap   =       1, ntwx    =     500, ntwv    =       0, ntwe    =       0
     ioutfm  =       1, ntwprt  =       0, idecomp =       0, rbornstat=      0

Potential function:
     ntf     =       2, ntb     =       2, igb     =       0, nsnb    =      20
     ipol    =       0, gbsa    =       0, iesp    =       0
     dielc   =   1.00000, cut     =  10.00000, intdiel =   1.00000

Frozen or restrained atoms:
     ibelly  =       0, ntr     =       1
     restraint_wt =   2.00000

Molecular dynamics:
     nstlim  =    250000, nscm    =         0, nrespa  =         1
     t       =   0.00000, dt      =   0.00100, vlimit  =  -1.00000

Langevin dynamics temperature regulation:
     ig      =  811473
     temp0   = 310.00000, tempi   =   0.00000, gamma_ln=   5.00000

Pressure regulation:
     ntp     =       1
     pres0   =   1.01325, comp    =  44.60000, taup    =   2.00000

SHAKE:
     ntc     =       2, jfastw  =       0
     tol     =   0.00000

Ewald parameters:
     verbose =       0, ew_type =       0, nbflag  =       0, use_pme =       1
     vdwmeth =       1, eedmeth =       1, netfrc  =       1
     Box X =   67.708   Box Y =   69.643   Box Z =   66.217
     Alpha =   90.000   Beta  =   90.000   Gamma =   90.000
     NFFT1 =   64       NFFT2 =   72       NFFT3 =   64
     Cutoff=   10.000   Tol   =0.100E-04
     Ewald Coefficient =  0.27511
     Interpolation order =    4

    LOADING THE CONSTRAINED ATOMS AS GROUPS

   5.  REFERENCE ATOM COORDINATES

  default_name
     Mask !@H=; matches  9451 atoms

--------------------------------------------------------------------------------
   3.  ATOMIC COORDINATES AND VELOCITIES
--------------------------------------------------------------------------------

default_name
 begin time read from input coords =   500.000 ps

 Number of triangulated 3-point waters found:     7895

     Sum of charges from parm topology file =  -0.00020106
     Forcing neutrality...

--------------------------------------------------------------------------------
   4.  RESULTS
 NSTEP =      500   TIME(PS) =     500.500  TEMP(K) =   306.98  PRESS =  -464.0
 Etot   =    -59608.0982  EKtot   =     16781.1777  EPtot      =    -76389.2760
 BOND   =       584.9870  ANGLE   =      1634.0732  DIHED      =      2065.1864
 1-4 NB =       667.1531  1-4 EEL =      5599.1752  VDWAALS    =     10188.6924
 EELEC  =   -101245.4386  EHBOND  =         0.0000  RESTRAINT  =      4116.8954
 EAMBER (non-restraint)  =    -80506.1714
 EKCMT  =      7036.6481  VIRIAL  =     10145.8932  VOLUME     =    310384.0408
                                                    Density    =         0.8801
 ------------------------------------------------------------------------------

      A V E R A G E S   O V E R     500 S T E P S

 NSTEP =   250000   TIME(PS) =     750.000  TEMP(K) =   309.87  PRESS =    -2.1
 Etot   =    -58550.9173  EKtot   =     16939.2533  EPtot      =    -75490.1706
 BOND   =       612.1073  ANGLE   =      1641.5969  DIHED      =      2065.5282
 1-4 NB =       664.1677  1-4 EEL =      5536.9574  VDWAALS    =     10234.8263
 EELEC  =   -101154.9488  EHBOND  =         0.0000  RESTRAINT  =      4909.5947
 EAMBER (non-restraint)  =    -80399.7653
 EKCMT  =      7299.1518  VIRIAL  =      7312.9451  VOLUME     =    305394.5587
                                                    Density    =         0.8944
 ------------------------------------------------------------------------------

      R M S  F L U C T U A T I O N S

 NSTEP =   250000   TIME(PS) =     750.000  TEMP(K) =     1.77  PRESS =   120.3
 Etot   =       218.5190  EKtot   =        96.9041  EPtot      =       188.3046
 BOND   =        21.4345  ANGLE   =        28.9094  DIHED      =        16.3654
 1-4 NB =        10.3625  1-4 EEL =        30.3878  VDWAALS    =       107.7091
 EELEC  =       177.8326  EHBOND  =         0.0000  RESTRAINT  =        98.6367
 EAMBER (non-restraint)  =        89.6678
 EKCMT  =        64.2547  VIRIAL  =       793.0819  VOLUME     =       400.2168
                                                    Density    =         0.0012
 ------------------------------------------------------------------------------
