-------------------------------------------------------
          Amber 14 SANDER                              2014
          -------------------------------------------------------

  [-O]verwriting output

File Assignments:

 Here is the input file:

Restrained Heating 250ps NPT MD
 &cntrl
   ig = -1,             ! Pseudo-random number generator (random seed based on
   imin = 0,            ! Minimization (No)
   irest = 1,           ! Restart the Simulation? (Yes)
   ntx = 5,             ! Read coordinates, velocities, and box
   cut = 10,            ! Non-bonding Cut-off (10 A)
   ntc = 2,             ! SHAKE bond length constraints (constrain bonds with H
   ntf = 2,             ! SHAKE force evaluation (omit bonds with H)
                        ! Note: SHAKE set for TIP3P waters
   tol = 0.00000005,	! equal to the rigid tolerance for NAMD
   dt = 0.001,		    		! timestep
   nstlim = 250000,     ! Simulation length (125000 steps or 250 ps)
   ntwr = 250000,       ! Restart file only at end of run.
   iwrap = 1,           ! Coordinates to be "wrapped" into primary box (on)
   nsnb = 20,		    		! these two parameter is equalivent to stepspercycle
   ntb = 2,                		! PBC (Constant Pressure)
   ntp = 1, 				! constant pressure MD (Isotropic position scaling)
   pres0=1.01325,			! Reference Pressure (1 bar)
   taup = 2.0,				! Pressure relaxation time (2ps)
   ntt = 3,				! Temperature Scaling (Langevin dynamics)
   gamma_ln = 5.0,      ! Collision frequency (1 ps^-1)
   temp0 = 310.0,	! Reference temperature (310K, physiological temperature)
   ntr = 1,             ! Harmonic constraints in Cartesian space (On)
   restraint_wt = 1.0,  ! Positional restraints weight ( 5 kcal/mol-A^2)
   restraintmask = '!@H=', 		! Restrained atoms (Protein backbone)
   ioutfm = 1,          ! Trajectory file format (Binary NetCDF)
   ntpr = 500,         ! Energy save interval (every 5000 steps or 10 ps)
   ntwx = 500,         ! Coordinate/trajectory save interval (every 5000 steps
 /
 &ewald
   skinnb = 2.0,           ! equal to pairlistdist (cutoff + skinnb)
   nbflag = 0,             !
 /

Note: ig = -1. Setting random seed to    27418 based on wallclock time in
      microseconds.

--------------------------------------------------------------------------------
   1.  RESOURCE   USE:
--------------------------------------------------------------------------------

 getting new box info from bottom of inpcrd
 NATOM  =   26731 NTYPES =      19 NBONH =   25175 MBONA  =    1600
 NTHETH =    3372 MTHETA =    2194 NPHIH =    6672 MPHIA  =    5434
 NHPARM =       0 NPARM  =       0 NNB   =   48323 NRES   =    8091
 NBONA  =    1600 NTHETA =    2194 NPHIA =    5434 NUMBND =      64
 NUMANG =     128 NPTRA  =      51 NATYP =      45 NPHB   =       1
 IFBOX  =       1 NMXRS  =      42 IFCAP =       0 NEXTRA =       0
 NCOPY  =       0

     BOX TYPE: RECTILINEAR

--------------------------------------------------------------------------------
   2.  CONTROL  DATA  FOR  THE  RUN
--------------------------------------------------------------------------------

default_name

General flags:
     imin    =       0, nmropt  =       0

Nature and format of input:
     ntx     =       5, irest   =       1, ntrx    =       1

Nature and format of output:
     ntxo    =       1, ntpr    =     500, ntrx    =       1, ntwr    =  250000
     iwrap   =       1, ntwx    =     500, ntwv    =       0, ntwe    =       0
     ioutfm  =       1, ntwprt  =       0, idecomp =       0, rbornstat=      0

Potential function:
     ntf     =       2, ntb     =       2, igb     =       0, nsnb    =      20
     ipol    =       0, gbsa    =       0, iesp    =       0
     dielc   =   1.00000, cut     =  10.00000, intdiel =   1.00000

Frozen or restrained atoms:
     ibelly  =       0, ntr     =       1
     restraint_wt =   1.00000

Molecular dynamics:
     nstlim  =    250000, nscm    =         0, nrespa  =         1
     t       =   0.00000, dt      =   0.00100, vlimit  =  -1.00000

Langevin dynamics temperature regulation:
     ig      =   27418
     temp0   = 310.00000, tempi   =   0.00000, gamma_ln=   5.00000

Pressure regulation:
     ntp     =       1
     pres0   =   1.01325, comp    =  44.60000, taup    =   2.00000

SHAKE:
     ntc     =       2, jfastw  =       0
     tol     =   0.00000

Ewald parameters:
     verbose =       0, ew_type =       0, nbflag  =       0, use_pme =       1
     vdwmeth =       1, eedmeth =       1, netfrc  =       1
     Box X =   67.196   Box Y =   69.116   Box Z =   65.716
     Alpha =   90.000   Beta  =   90.000   Gamma =   90.000
     NFFT1 =   64       NFFT2 =   72       NFFT3 =   64
     Cutoff=   10.000   Tol   =0.100E-04
     Ewald Coefficient =  0.27511
     Interpolation order =    4

    LOADING THE CONSTRAINED ATOMS AS GROUPS

   5.  REFERENCE ATOM COORDINATES

  default_name
     Mask !@H=; matches  9451 atoms

--------------------------------------------------------------------------------
   3.  ATOMIC COORDINATES AND VELOCITIES
--------------------------------------------------------------------------------

default_name
 begin time read from input coords =   750.000 ps

 Number of triangulated 3-point waters found:     7895

     Sum of charges from parm topology file =  -0.00020106
     Forcing neutrality...

--------------------------------------------------------------------------------
   4.  RESULTS
 NSTEP =      500   TIME(PS) =     750.500  TEMP(K) =   306.55  PRESS =  -343.6
 Etot   =    -60846.1892  EKtot   =     16757.7559  EPtot      =    -77603.9451
 BOND   =       610.5453  ANGLE   =      1636.5079  DIHED      =      2106.8752
 1-4 NB =       672.9173  1-4 EEL =      5519.1529  VDWAALS    =     10001.0436
 EELEC  =   -101645.7512  EHBOND  =         0.0000  RESTRAINT  =      3494.7639
 EAMBER (non-restraint)  =    -81098.7090
 EKCMT  =      7240.2024  VIRIAL  =      9497.4828  VOLUME     =    304258.7536
                                                    Density    =         0.8978
 ------------------------------------------------------------------------------

      A V E R A G E S   O V E R     500 S T E P S

 NSTEP =   250000   TIME(PS) =    1000.000  TEMP(K) =   310.02  PRESS =    -0.1
 Etot   =    -58890.3728  EKtot   =     16947.2218  EPtot      =    -75837.5946
 BOND   =       610.3523  ANGLE   =      1638.4208  DIHED      =      2073.9666
 1-4 NB =       671.4038  1-4 EEL =      5543.0410  VDWAALS    =      9775.9500
 EELEC  =   -100825.7247  EHBOND  =         0.0000  RESTRAINT  =      4674.9955
 EAMBER (non-restraint)  =    -80512.5901
 EKCMT  =      7305.4171  VIRIAL  =      7306.2201  VOLUME     =    298302.0474
                                                    Density    =         0.9157
 ------------------------------------------------------------------------------

      R M S  F L U C T U A T I O N S

 NSTEP =   250000   TIME(PS) =    1000.000  TEMP(K) =     1.91  PRESS =   131.6
 Etot   =       237.6194  EKtot   =       104.6368  EPtot      =       214.4473
 BOND   =        22.3728  ANGLE   =        28.5199  DIHED      =        17.2641
 1-4 NB =        10.5281  1-4 EEL =        32.5232  VDWAALS    =       124.0001
 EELEC  =       207.3342  EHBOND  =         0.0000  RESTRAINT  =       115.5137
 EAMBER (non-restraint)  =        98.9336
 EKCMT  =        69.1918  VIRIAL  =       848.8410  VOLUME     =       567.5959
                                                    Density    =         0.0017
 ------------------------------------------------------------------------------
